@<TRIPOS>MOLECULE
LIG
   55    54     1     0     0
SMALL
No Charge or Current Charge


@<TRIPOS>ATOM
      1 C1           9.5060    -2.1970     0.3780 c3         1 LIG      -0.288939
      2 H1           9.4160    -3.0200     1.0820 hc         1 LIG       0.061327
      3 H2           9.7840    -1.3110     0.9410 hc         1 LIG       0.059650
      4 H3          10.3230    -2.4290    -0.2980 hc         1 LIG       0.054618
      5 C2           8.1990    -1.9780    -0.3840 c3         1 LIG       0.286810
      6 H4           7.9670    -2.8690    -0.9640 hc         1 LIG      -0.053905
      7 H5           8.3320    -1.1730    -1.1040 hc         1 LIG      -0.059284
      8 C3           7.0190    -1.6490     0.5320 c3         1 LIG      -0.127479
      9 H6           7.2550    -0.7580     1.1130 hc         1 LIG       0.012558
     10 H7           6.8880    -2.4550     1.2520 hc         1 LIG       0.010855
     11 C4           5.7080    -1.4280    -0.2250 c3         1 LIG       0.032212
     12 H8           5.4720    -2.3190    -0.8030 hc         1 LIG      -0.011201
     13 H9           5.8330    -0.6220    -0.9450 hc         1 LIG      -0.005409
     14 C5           4.5290    -1.0960     0.6990 c3         1 LIG       0.268902
     15 H10          4.7580    -0.2000     1.2660 hc         1 LIG      -0.029168
     16 H11          4.4170    -1.8990     1.4260 hc         1 LIG      -0.028616
     17 C6           3.2340    -0.9470    -0.0570 c2         1 LIG      -0.406625
     18 H12          2.9250    -1.8350    -0.5870 ha         1 LIG       0.170764
     19 C7           2.4480     0.1120    -0.1530 c2         1 LIG      -0.257834
     20 H13          1.5580     0.0200    -0.7560 ha         1 LIG       0.170511
     21 C8           2.6270     1.4760     0.4740 c3         1 LIG       0.390927
     22 H14          3.4930     1.4890     1.1270 hc         1 LIG      -0.029024
     23 H15          1.7670     1.6860     1.0990 hc         1 LIG      -0.037953
     24 C9           2.7950     2.5440    -0.5820 c2         1 LIG      -0.390004
     25 H16          3.6890     2.4390    -1.1760 ha         1 LIG       0.175742
     26 C10          1.9860     3.5480    -0.8730 c2         1 LIG      -0.266886
     27 H17          2.2800     4.1990    -1.6830 ha         1 LIG       0.134519
     28 C11          0.6690     3.9140    -0.2280 c3         1 LIG       0.390379
     29 H18          0.7630     4.9170     0.1910 hc         1 LIG      -0.056487
     30 H19          0.4430     3.2580     0.5980 hc         1 LIG      -0.023645
     31 C12         -0.4540     3.9240    -1.2380 c2         1 LIG      -0.316210
     32 H20         -0.3020     4.5920    -2.0720 ha         1 LIG       0.130339
     33 C13         -1.5750     3.2150    -1.2200 ce         1 LIG      -0.151668
     34 H21         -2.2640     3.3550    -2.0380 ha         1 LIG       0.132516
     35 C14         -2.0080     2.2420    -0.2090 ce         1 LIG      -0.077796
     36 H22         -1.3510     2.0460     0.6210 ha         1 LIG       0.137736
     37 H23         -4.5280     2.8600     1.7270 ho         1 LIG       0.422610
     38 C15         -3.1600     1.5910    -0.2750 c2         1 LIG      -0.338944
     39 H24         -3.8350     1.7750    -1.0980 ha         1 LIG       0.200016
     40 C16         -3.6320     0.5650     0.7250 c3         1 LIG       0.255254
     41 H25         -2.8590     0.3870     1.4650 h1         1 LIG       0.081174
     42 C17         -4.0320    -0.7400     0.0390 c3         1 LIG      -0.252870
     43 H26         -4.8110    -0.5590    -0.6890 hc         1 LIG       0.123137
     44 H27         -3.1530    -1.0800    -0.5070 hc         1 LIG       0.065455
     45 C18         -4.5080    -1.8430     0.9870 c3         1 LIG       0.159645
     46 H28         -3.8070    -1.9270     1.8210 hc         1 LIG      -0.059849
     47 H29         -5.4670    -1.5580     1.4000 hc         1 LIG      -0.000740
     48 C19         -4.6390    -3.1960     0.2870 c3         1 LIG      -0.230928
     49 H30         -3.6810    -3.5020    -0.1310 hc         1 LIG       0.012335
     50 H31         -4.8940    -3.9580     1.0220 hc         1 LIG       0.021535
     51 C20         -5.7070    -3.2880    -0.8440 c          1 LIG       0.898149
     52 O1          -6.4590    -2.3150    -0.9720 o          1 LIG      -0.826574
     53 O2          -5.6810    -4.3440    -1.4770 o          1 LIG      -0.843367
     54 O3          -4.7760     1.0520     1.4070 os         1 LIG      -0.199213
     55 O4          -4.3880     2.0850     2.2570 oh         1 LIG      -0.489054
@<TRIPOS>BOND
     1     1     2 1   
     2     1     3 1   
     3     1     4 1   
     4     1     5 1   
     5     5     6 1   
     6     5     7 1   
     7     5     8 1   
     8     8     9 1   
     9     8    10 1   
    10     8    11 1   
    11    11    12 1   
    12    11    13 1   
    13    11    14 1   
    14    14    15 1   
    15    14    16 1   
    16    14    17 1   
    17    17    18 1   
    18    17    19 2   
    19    19    20 1   
    20    19    21 1   
    21    21    22 1   
    22    21    23 1   
    23    21    24 1   
    24    24    25 1   
    25    24    26 2   
    26    26    27 1   
    27    26    28 1   
    28    28    29 1   
    29    28    30 1   
    30    28    31 1   
    31    31    32 1   
    32    31    33 2   
    33    33    34 1   
    34    33    35 1   
    35    35    36 1   
    36    35    38 2   
    37    37    55 1   
    38    38    39 1   
    39    38    40 1   
    40    40    41 1   
    41    40    42 1   
    42    40    54 1   
    43    42    43 1   
    44    42    44 1   
    45    42    45 1   
    46    45    46 1   
    47    45    47 1   
    48    45    48 1   
    49    48    49 1   
    50    48    50 1   
    51    48    51 1   
    52    51    52 1   
    53    51    53 1   
    54    54    55 1   
@<TRIPOS>SUBSTRUCTURE
     1 LIG         1 TEMP              0 ****  ****    0 ROOT
