@<TRIPOS>MOLECULE
LIG
   53    52     1     0     0
SMALL
No Charge or Current Charge


@<TRIPOS>ATOM
      1 C1           8.4720    -0.9850     0.6720 c          1 LIG       0.857961
      2 O1           8.9820    -2.1000     0.7790 o          1 LIG      -0.832201
      3 O2           8.1260    -0.1940     1.5590 o          1 LIG      -0.814881
      4 C2           8.2910    -0.5020    -0.7990 c3         1 LIG      -0.111684
      5 H2A          7.9550    -1.3460    -1.3980 hc         1 LIG      -0.009011
      6 H2B          9.2960    -0.2760    -1.1550 hc         1 LIG       0.009435
      7 C3           7.4010     0.7220    -1.0340 c3         1 LIG      -0.026471
      8 H3A          7.6840     1.1940    -1.9760 hc         1 LIG      -0.038184
      9 H3B          7.5890     1.4410    -0.2450 hc         1 LIG       0.028788
     10 C4           5.8920     0.4340    -1.1170 c3         1 LIG      -0.030708
     11 H4A          5.7290    -0.3590    -1.8470 hc         1 LIG       0.037541
     12 H4B          5.3920     1.3140    -1.5200 hc         1 LIG       0.034270
     13 C5           5.2450     0.0510     0.1990 c2         1 LIG      -0.042540
     14 H5           5.9300    -0.1260     1.0100 ha         1 LIG       0.159134
     15 C6           3.9460    -0.0740     0.4230 c2         1 LIG      -0.550487
     16 H6           3.6210    -0.3460     1.4160 ha         1 LIG       0.166252
     17 C7           2.8280     0.1270    -0.5760 c3         1 LIG       0.525811
     18 H7A          2.2610    -0.7940    -0.6810 hc         1 LIG      -0.049716
     19 H7B          3.2410     0.3440    -1.5570 hc         1 LIG      -0.084543
     20 C8           1.9210     1.2670    -0.1780 c2         1 LIG      -0.336436
     21 H8           2.4260     2.2180    -0.1020 ha         1 LIG       0.159492
     22 C9           0.6280     1.2480     0.1020 c2         1 LIG      -0.270321
     23 H9           0.1590     2.1820     0.3720 ha         1 LIG       0.134122
     24 C10         -0.3140     0.0660     0.0890 c3         1 LIG       0.199639
     25 H10A        -0.7620    -0.0410     1.0710 hc         1 LIG       0.016344
     26 H10B         0.2310    -0.8520    -0.1010 hc         1 LIG       0.022581
     27 C11         -1.3790     0.2230    -0.9710 c2         1 LIG      -0.288389
     28 H11         -0.9900     0.2910    -1.9740 ha         1 LIG       0.150793
     29 C12         -2.6920     0.2970    -0.8250 c2         1 LIG      -0.315124
     30 H12         -3.2860     0.4210    -1.7180 ha         1 LIG       0.138667
     31 C13         -3.5020     0.2420     0.4510 c3         1 LIG       0.466964
     32 H13A        -2.8540     0.0810     1.3050 hc         1 LIG      -0.029226
     33 H13B        -4.1700    -0.6050     0.4060 hc         1 LIG      -0.114716
     34 C14         -4.2540     1.5360     0.6640 c2         1 LIG      -0.355510
     35 H14         -3.5930     2.3820     0.7780 ha         1 LIG       0.161431
     36 C15         -5.5480     1.8140     0.7140 c2         1 LIG      -0.265955
     37 H15         -5.7820     2.8580     0.8650 ha         1 LIG       0.123142
     38 C16         -6.8130     0.9910     0.5910 c3         1 LIG       0.133787
     39 H16A        -7.3470     1.3670    -0.2790 hc         1 LIG       0.006811
     40 H16B        -7.4400     1.2540     1.4430 hc         1 LIG       0.010769
     41 C17         -6.7300    -0.5350     0.5160 c3         1 LIG      -0.048129
     42 H17A        -6.1560    -0.9030     1.3610 hc         1 LIG       0.056647
     43 H17B        -6.1990    -0.8380    -0.3820 hc         1 LIG       0.085296
     44 C18         -8.1020    -1.2220     0.5360 c3         1 LIG      -0.308057
     45 H18A        -8.6470    -0.9150     1.4280 hc         1 LIG       0.073859
     46 H18B        -7.9440    -2.2940     0.6330 hc         1 LIG       0.075087
     47 C19         -8.9720    -0.9710    -0.7000 c3         1 LIG       0.286916
     48 H19A        -8.4090    -1.2330    -1.5930 hc         1 LIG      -0.047298
     49 H19B        -9.2070     0.0860    -0.7850 hc         1 LIG      -0.046228
     50 C20        -10.2760    -1.7690    -0.6710 c3         1 LIG      -0.286721
     51 H20A       -10.8770    -1.5740    -1.5550 hc         1 LIG       0.055775
     52 H20B       -10.8740    -1.5110     0.1990 hc         1 LIG       0.060081
     53 H20C       -10.0820    -2.8370    -0.6320 hc         1 LIG       0.065145
@<TRIPOS>BOND
     1     1     2 1   
     2     1     3 1   
     3     1     4 1   
     4     4     5 1   
     5     4     6 1   
     6     4     7 1   
     7     7     8 1   
     8     7     9 1   
     9     7    10 1   
    10    10    11 1   
    11    10    12 1   
    12    10    13 1   
    13    13    14 1   
    14    13    15 2   
    15    15    16 1   
    16    15    17 1   
    17    17    18 1   
    18    17    19 1   
    19    17    20 1   
    20    20    21 1   
    21    20    22 2   
    22    22    23 1   
    23    22    24 1   
    24    24    25 1   
    25    24    26 1   
    26    24    27 1   
    27    27    28 1   
    28    27    29 2   
    29    29    30 1   
    30    29    31 1   
    31    31    32 1   
    32    31    33 1   
    33    31    34 1   
    34    34    35 1   
    35    34    36 2   
    36    36    37 1   
    37    36    38 1   
    38    38    39 1   
    39    38    40 1   
    40    38    41 1   
    41    41    42 1   
    42    41    43 1   
    43    41    44 1   
    44    44    45 1   
    45    44    46 1   
    46    44    47 1   
    47    47    48 1   
    48    47    49 1   
    49    47    50 1   
    50    50    51 1   
    51    50    52 1   
    52    50    53 1   
@<TRIPOS>SUBSTRUCTURE
     1 LIG         1 TEMP              0 ****  ****    0 ROOT
