@<TRIPOS>MOLECULE
LIG
   54    53     1     0     0
SMALL
No Charge or Current Charge


@<TRIPOS>ATOM
      1 C1           8.9170    -2.4260     0.1200 c3         1 LIG      -0.292825
      2 H1           8.8100    -3.2540     0.8150 hc         1 LIG       0.062164
      3 H2           9.2840    -1.5700     0.6820 hc         1 LIG       0.059661
      4 H3           9.6790    -2.6980    -0.6040 hc         1 LIG       0.056097
      5 C2           7.5880    -2.1070    -0.5650 c3         1 LIG       0.277822
      6 H4           7.2660    -2.9690    -1.1450 hc         1 LIG      -0.050303
      7 H5           7.7350    -1.2980    -1.2780 hc         1 LIG      -0.057253
      8 C3           6.4840    -1.7180     0.4200 c3         1 LIG      -0.110749
      9 H6           6.8100    -0.8560     1.0010 hc         1 LIG       0.008589
     10 H7           6.3390    -2.5280     1.1340 hc         1 LIG       0.007134
     11 C4           5.1520    -1.3980    -0.2590 c3         1 LIG       0.021202
     12 H8           4.8250    -2.2600    -0.8370 hc         1 LIG      -0.012156
     13 H9           5.2910    -0.5880    -0.9730 hc         1 LIG      -0.006142
     14 C5           4.0490    -1.0060     0.7330 c3         1 LIG       0.300929
     15 H10          4.3680    -0.1390     1.3010 hc         1 LIG      -0.043254
     16 H11          3.9230    -1.8150     1.4530 hc         1 LIG      -0.036940
     17 C6           2.7280    -0.7590     0.0520 c2         1 LIG      -0.405558
     18 H12          2.3320    -1.6150    -0.4740 ha         1 LIG       0.172736
     19 C7           2.0090     0.3500     0.0170 c2         1 LIG      -0.265216
     20 H13          1.0840     0.3280    -0.5370 ha         1 LIG       0.179265
     21 C8           2.3100     1.6860     0.6560 c3         1 LIG       0.392258
     22 H14          3.2080     1.6310     1.2630 hc         1 LIG      -0.024288
     23 H15          1.5000     1.9390     1.3300 hc         1 LIG      -0.046994
     24 C9           2.4930     2.7640    -0.3880 c2         1 LIG      -0.404261
     25 H16          3.3670     2.6340    -1.0070 ha         1 LIG       0.179760
     26 C10          1.7140     3.8000    -0.6450 c2         1 LIG      -0.258887
     27 H17          2.0100     4.4520    -1.4530 ha         1 LIG       0.131009
     28 C11          0.4250     4.2000     0.0350 c3         1 LIG       0.418034
     29 H18          0.5570     5.1940     0.4620 hc         1 LIG      -0.065960
     30 H19          0.1990     3.5410     0.8600 hc         1 LIG      -0.040031
     31 C12         -0.7220     4.2500    -0.9480 c2         1 LIG      -0.328773
     32 H20         -0.5940     4.9590    -1.7510 ha         1 LIG       0.128077
     33 C13         -1.8330     3.5250    -0.9420 ce         1 LIG      -0.139202
     34 H21         -2.5390     3.6950    -1.7380 ha         1 LIG       0.134384
     35 C14         -2.2340     2.4950     0.0250 ce         1 LIG      -0.154992
     36 H22         -1.5630     2.2780     0.8390 ha         1 LIG       0.174775
     37 C15         -3.3690     1.8160    -0.0660 c2         1 LIG      -0.295931
     38 H23         -4.0550     2.0180    -0.8740 ha         1 LIG       0.190576
     39 C16         -3.8190     0.7450     0.8950 c3         1 LIG       0.293799
     40 H24         -3.0690     0.6400     1.6800 h1         1 LIG      -0.008570
     41 C17         -3.9990    -0.5990     0.1950 c3         1 LIG       0.048989
     42 H25         -4.7220    -0.5080    -0.6040 hc         1 LIG       0.062532
     43 H26         -3.0410    -0.8520    -0.2580 hc         1 LIG      -0.034093
     44 C18         -4.4460    -1.7320     1.1210 c3         1 LIG       0.053501
     45 H27         -3.8330    -1.7160     2.0270 hc         1 LIG      -0.063488
     46 H28         -5.4690    -1.5520     1.4230 hc         1 LIG       0.023366
     47 C19         -4.3440    -3.1090     0.4620 c3         1 LIG      -0.178456
     48 H29         -3.3190    -3.3070     0.1520 hc         1 LIG       0.004563
     49 H30         -4.5800    -3.8770     1.1980 hc         1 LIG       0.015605
     50 C20         -5.2740    -3.3610    -0.7620 c          1 LIG       0.849255
     51 O1          -6.1400    -2.5080    -0.9800 o          1 LIG      -0.810185
     52 O2          -5.0410    -4.4110    -1.3640 o          1 LIG      -0.836248
     53 O3          -5.0510     1.1260     1.4730 oh         1 LIG      -0.689234
     54 H31         -4.9300     1.9470     1.9280 ho         1 LIG       0.413906
@<TRIPOS>BOND
     1     1     2 1   
     2     1     3 1   
     3     1     4 1   
     4     1     5 1   
     5     5     6 1   
     6     5     7 1   
     7     5     8 1   
     8     8     9 1   
     9     8    10 1   
    10     8    11 1   
    11    11    12 1   
    12    11    13 1   
    13    11    14 1   
    14    14    15 1   
    15    14    16 1   
    16    14    17 1   
    17    17    18 1   
    18    17    19 2   
    19    19    20 1   
    20    19    21 1   
    21    21    22 1   
    22    21    23 1   
    23    21    24 1   
    24    24    25 1   
    25    24    26 2   
    26    26    27 1   
    27    26    28 1   
    28    28    29 1   
    29    28    30 1   
    30    28    31 1   
    31    31    32 1   
    32    31    33 2   
    33    33    34 1   
    34    33    35 1   
    35    35    36 1   
    36    35    37 2   
    37    37    38 1   
    38    37    39 1   
    39    39    40 1   
    40    39    41 1   
    41    39    53 1   
    42    41    42 1   
    43    41    43 1   
    44    41    44 1   
    45    44    45 1   
    46    44    46 1   
    47    44    47 1   
    48    47    48 1   
    49    47    49 1   
    50    47    50 1   
    51    50    51 1   
    52    50    52 1   
    53    53    54 1   
@<TRIPOS>SUBSTRUCTURE
     1 LIG         1 TEMP              0 ****  ****    0 ROOT
